Version 4
SHEET 1 880 680
WIRE -832 -80 -832 -112
WIRE 208 -32 208 -64
WIRE 240 -32 240 -64
WIRE 272 -32 272 -80
WIRE 304 -32 304 -64
WIRE 368 -32 368 -64
WIRE 400 -32 400 -64
WIRE 432 -32 432 -64
WIRE 464 -32 464 -80
WIRE 16 96 -192 96
WIRE -816 128 -816 80
WIRE 16 192 16 96
WIRE 144 192 16 192
WIRE 480 192 368 192
WIRE 272 208 272 192
WIRE 272 208 -16 208
WIRE 336 208 336 192
WIRE 384 208 336 208
WIRE -128 224 -160 224
WIRE 304 224 304 192
WIRE 352 224 304 224
WIRE -192 240 -192 96
WIRE -192 240 -208 240
WIRE 272 240 272 208
WIRE 272 240 16 240
WIRE 336 240 272 240
WIRE 384 240 384 208
WIRE 432 240 384 240
WIRE 256 256 64 256
WIRE 288 256 256 256
WIRE -432 272 -464 272
WIRE -160 272 -160 224
WIRE -160 272 -208 272
WIRE 384 272 384 240
WIRE 448 272 384 272
WIRE 304 288 304 272
WIRE 304 288 224 288
WIRE 320 288 304 288
WIRE 352 288 352 224
WIRE 368 288 352 288
WIRE 352 304 352 288
WIRE 416 304 352 304
WIRE 224 320 224 288
WIRE 256 320 256 256
WIRE 288 320 288 256
WIRE 320 320 320 288
WIRE 336 320 336 240
WIRE 384 320 336 320
WIRE 416 320 416 304
WIRE 448 320 448 272
WIRE 480 320 480 192
WIRE -784 336 -784 272
WIRE 16 352 16 240
WIRE 16 352 -16 352
WIRE -208 368 -208 304
WIRE -128 368 -208 368
WIRE -432 448 -432 272
WIRE 64 448 64 256
WIRE 64 448 -432 448
WIRE -608 464 -608 384
WIRE 288 576 288 544
WIRE 320 576 320 544
WIRE 352 576 352 544
WIRE 384 576 384 544
FLAG 304 272 0
FLAG 432 240 A
FLAG -16 240 A
FLAG 368 288 B
FLAG -16 384 B
FLAG -464 272 Cout
FLAG -832 0 0
FLAG -816 208 0
FLAG -784 416 0
FLAG -608 544 0
FLAG -832 -112 C
FLAG -816 80 D
FLAG -784 272 E
FLAG -608 384 F
FLAG 208 -64 C
FLAG 240 -64 D
FLAG 272 -80 E
FLAG 304 -64 F
FLAG 368 -64 C
FLAG 400 -64 D
FLAG 432 -64 E
FLAG 464 -80 F
FLAG 384 576 S1
FLAG 352 576 S2
FLAG 320 576 S3
FLAG 288 576 S4
SYMBOL 74hct283 528 80 R90
WINDOW 0 -16 16 Invisible 2
SYMATTR InstName U1
SYMBOL 74hct283 544 432 R90
SYMATTR InstName U2
SYMBOL 74hct08 -64 288 R180
SYMATTR InstName U3
SYMBOL 74hct08 -64 432 R180
SYMATTR InstName U4
SYMBOL 74hct27 -256 352 R180
SYMATTR InstName U5
SYMBOL 74hct04 -368 336 R180
SYMATTR InstName U6
SYMBOL voltage -832 -96 R0
WINDOW 123 0 0 Left 2
WINDOW 39 0 0 Left 2
SYMATTR InstName V1
SYMATTR Value PULSE(0 5 8u 1p 1p 8u 16u)
SYMBOL voltage -816 112 R0
WINDOW 123 0 0 Left 2
WINDOW 39 0 0 Left 2
SYMATTR InstName V2
SYMATTR Value PULSE(0 5 4u 1p 1p 4u 8u)
SYMBOL voltage -784 320 R0
WINDOW 123 0 0 Left 2
WINDOW 39 0 0 Left 2
SYMATTR InstName V3
SYMATTR Value PULSE(0 5 2u 1p 1p 2u 4u)
SYMBOL voltage -608 448 R0
WINDOW 123 0 0 Left 2
WINDOW 39 0 0 Left 2
SYMATTR InstName V4
SYMATTR Value PULSE(0 5 1u 1p 1p 1u 2u)
TEXT -866 582 Left 2 !.tran 16u
TEXT 656 -8 Left 2 !.include 74hct.lib
TEXT -168 -96 Left 2 ;BCD ADDER
