Version 4
SHEET 1 944 680
WIRE -240 96 -240 64
WIRE 0 96 -16 96
WIRE 80 96 0 96
WIRE 208 112 192 112
WIRE 272 112 208 112
WIRE 48 128 -16 128
WIRE 80 128 48 128
WIRE 272 176 272 112
WIRE 448 192 384 192
WIRE 240 208 144 208
WIRE 272 208 240 208
WIRE 240 256 240 208
WIRE 464 256 240 256
WIRE -256 272 -256 240
WIRE 688 272 576 272
WIRE 208 304 208 112
WIRE 464 304 464 288
WIRE 464 304 208 304
WIRE 688 336 688 272
WIRE 704 336 688 336
WIRE 864 352 816 352
WIRE 704 368 640 368
WIRE 48 432 48 128
WIRE 464 432 48 432
WIRE -240 448 -240 416
WIRE 640 448 640 368
WIRE 640 448 576 448
WIRE 0 464 0 96
WIRE 464 464 0 464
FLAG -16 96 A
FLAG -16 128 B
FLAG 144 208 Cin
FLAG 864 352 Cout
FLAG 448 192 SUM
FLAG -240 176 0
FLAG -256 352 0
FLAG -240 528 0
FLAG -240 64 A
FLAG -256 240 B
FLAG -240 416 Cin
SYMBOL 74hct86 128 48 R0
SYMATTR InstName U1
SYMBOL 74hct86 320 128 R0
SYMATTR InstName U2
SYMBOL 74hct08 512 208 R0
SYMATTR InstName U3
SYMBOL 74hct08 512 384 R0
SYMATTR InstName U4
SYMBOL 74hct32 752 288 R0
SYMATTR InstName U5
SYMBOL voltage -240 80 R0
WINDOW 123 0 0 Left 2
WINDOW 39 0 0 Left 2
SYMATTR InstName V1
SYMATTR Value PULSE(0 5 2u 1p 1p 2u 4u)
SYMBOL voltage -256 256 R0
WINDOW 123 0 0 Left 2
WINDOW 39 0 0 Left 2
SYMATTR InstName V2
SYMATTR Value PULSE(0 5 1u 1p 1p 1u 2u)
SYMBOL voltage -240 432 R0
WINDOW 123 0 0 Left 2
WINDOW 39 0 0 Left 2
SYMATTR InstName V3
SYMATTR Value PULSE(0 5 4u 1p 1p 4u 8u)
TEXT 696 -56 Left 2 !.include 74hct.lib
TEXT -290 552 Left 2 !.tran 8u
TEXT 176 -64 Left 2 ;FULL ADDER
