Version 4
SHEET 1 880 680
WIRE 80 64 -80 64
WIRE 112 64 80 64
WIRE -80 80 -80 64
WIRE 320 80 224 80
WIRE 80 96 48 96
WIRE 112 96 80 96
WIRE 320 176 320 80
WIRE 576 192 432 192
WIRE 48 208 48 96
WIRE 48 208 -80 208
WIRE 320 208 96 208
WIRE 576 208 576 192
WIRE -80 224 -80 208
WIRE 736 224 688 224
WIRE 96 240 96 208
WIRE 576 240 512 240
WIRE 512 304 512 240
FLAG 80 64 A
FLAG 80 96 B
FLAG 96 208 C
FLAG -80 160 0
FLAG -80 304 0
FLAG 96 320 0
FLAG 512 384 0
FLAG 736 224 Output
SYMBOL 74hct86 160 16 R0
SYMATTR InstName U1
SYMBOL 74hct86 368 128 R0
SYMATTR InstName U2
SYMBOL voltage -80 64 R0
WINDOW 3 24 96 Invisible 2
WINDOW 123 0 0 Left 2
WINDOW 39 0 0 Left 2
SYMATTR InstName V1
SYMATTR Value PULSE(0 5 4u 1p 1p 4u 8u)
SYMBOL voltage -80 208 R0
WINDOW 3 24 96 Invisible 2
WINDOW 123 0 0 Left 2
WINDOW 39 0 0 Left 2
SYMATTR InstName V2
SYMATTR Value PULSE(0 5 1u 1p 1p 1u 2u)
SYMBOL voltage 96 224 R0
WINDOW 3 24 96 Invisible 2
WINDOW 123 0 0 Left 2
WINDOW 39 0 0 Left 2
SYMATTR InstName V3
SYMATTR Value PULSE(0 5 2u 1p 1p 2u 4u)
SYMBOL 74hct86 624 160 R0
SYMATTR InstName U3
SYMBOL voltage 512 288 R0
WINDOW 123 0 0 Left 2
WINDOW 39 0 0 Left 2
SYMATTR InstName V4
SYMATTR Value 3
TEXT -114 344 Left 2 !.tran 8u
TEXT 464 24 Left 2 !.include 74hct.lib
TEXT 120 -120 Left 2 ;PARITY GENERATOR
